format  1 0  

MONOMERS       
N_monomer           
              2
kuhn                
  1.0000000E+00  1.0000000E+00

CHAINS         
N_chain             
              1
N_block             
              2
block_monomer
              1              2
block_length
  5.0000000E-01  5.0000000E-01

SOLVENTS       
N_solvent           
              0

COMPOSITION    
ensemble            
              0
phi_chain           
  1.0000000E+00

INTERACTION    
interaction_type
           'chi'
chi                 
  3.7000000E+01

UNIT_CELL      
dim                 
              1
crystal_system      
     'lamellar'
N_cell_param        
              1
cell_param          
  1.9160039E+00

DISCRETIZATION 
N_grid              
             92
chain_step          
  1.0000000E-02

FILE_PREFIXES  
input_prefix        
          'in.'
output_prefix       
             ''

BASIS          
group_name          
           '-1'

ITERATE        
max_itr             
             20
N_cut               
             47
error_max           
  1.0000000E-08
domain              
              T

SWEEP          
s_max               
  2.8000000E+01
d_chi               
  1.0000000E+00
end_increments

FINISH         

THERMO         
f_Helmholtz         
  4.1476758E+00
f_homo              
  8.2500000E+00
pressure            
  2.9415222E+00
mu_chain            
  7.0891980E+00
stress              
  2.5185520E-12

DECOMPOSE      
overlap_AB          
  5.2473572E-02
f_enthalpy          
  1.9415222E+00
f_head              
  1.2889324E+00
f_tail              
  1.2889324E+00
f_excess            
  6.2828882E-01

STATISTICS     
N_star              
             47
final_error         
  2.2634317E-09
iteration           
              9
basis_time          
  1.4221191E-02
scf_time            
  2.6908302E-01
